# generated using pymatgen
data_SrLi2Al2(NO)2
_symmetry_space_group_name_H-M   'P 1'
_cell_length_a   7.95900000
_cell_length_b   7.95900000
_cell_length_c   3.18400000
_cell_angle_alpha   90.00000000
_cell_angle_beta   90.00000000
_cell_angle_gamma   90.00000000
_symmetry_Int_Tables_number   1
_chemical_formula_structural   SrLi2Al2(NO)2
_chemical_formula_sum   'Sr2 Li4 Al4 N4 O4'
_cell_volume   201.69264830
_cell_formula_units_Z   2
loop_
 _symmetry_equiv_pos_site_id
 _symmetry_equiv_pos_as_xyz
  1  'x, y, z'
loop_
 _atom_site_type_symbol
 _atom_site_label
 _atom_site_symmetry_multiplicity
 _atom_site_fract_x
 _atom_site_fract_y
 _atom_site_fract_z
 _atom_site_occupancy
  Sr  Sr0  1  0.50000000  0.00000000  0.50000000  1
  Sr  Sr1  1  0.00000000  0.50000000  0.00000000  1
  Li  Li2  1  0.13100000  0.82100000  0.50000000  1
  Li  Li3  1  0.86900000  0.17900000  0.50000000  1
  Li  Li4  1  0.17900000  0.13100000  0.00000000  1
  Li  Li5  1  0.82100000  0.86900000  0.00000000  1
  Al  Al6  1  0.35330000  0.68420000  0.00000000  1
  Al  Al7  1  0.64670000  0.31580000  0.00000000  1
  Al  Al8  1  0.31580000  0.35330000  0.50000000  1
  Al  Al9  1  0.68420000  0.64670000  0.50000000  1
  N  N10  1  0.58550000  0.72990000  0.00000000  1
  N  N11  1  0.41450000  0.27010000  0.00000000  1
  N  N12  1  0.27010000  0.58550000  0.50000000  1
  N  N13  1  0.72990000  0.41450000  0.50000000  1
  O  O14  1  0.25460000  0.89350000  0.00000000  1
  O  O15  1  0.74540000  0.10650000  0.00000000  1
  O  O16  1  0.10650000  0.25460000  0.50000000  1
  O  O17  1  0.89350000  0.74540000  0.50000000  1
